http://www.rcsb.org/pdb/files/1fvv.pdb.gz
 OpenBabel02081205023D
Jmol version 13.0.9  2012-11-23 13:17 EXTRACT: ({8960:8990})
 72 76  0  0  0  0  0  0  0  0999 V2000
  -11.2220  207.9760  109.2120 O   0  0  0  0  0  0  0  0  0  0  0  0
  -12.1710  207.5020  109.8420 C   0  0  0  0  0  0  0  0  0  0  0  0
  -13.3600  207.1380  109.3200 N   0  0  0  0  0  0  0  0  0  0  0  0
  -14.2170  206.7500  110.3000 C   0  0  0  0  0  0  0  0  0  0  0  0
  -15.6380  206.3600  110.1900 C   0  0  0  0  0  0  0  0  0  0  0  0
  -16.3860  205.9670  111.3900 C   0  0  0  0  0  0  0  0  0  0  0  0
  -15.7410  206.0270  112.6900 C   0  0  0  0  0  0  0  0  0  0  0  0
  -16.2320  205.7140  113.9500 N   0  0  0  0  0  0  0  0  0  0  0  0
  -15.3040  205.8370  114.9320 C   0  0  0  0  0  0  0  0  0  0  0  0
  -13.8140  206.4530  114.4280 S   0  0  0  0  0  0  0  0  0  0  0  0
  -14.2920  206.4680  112.8160 C   0  0  0  0  0  0  0  0  0  0  0  0
  -13.5570  206.8060  111.5860 C   0  0  0  0  0  0  0  0  0  0  0  0
  -12.2030  207.2550  111.3270 C   0  0  0  0  0  0  0  0  0  0  0  0
  -11.1760  207.4750  112.1700 C   0  0  0  0  0  0  0  0  0  0  0  0
  -10.1070  208.4390  111.7920 N   0  0  0  0  0  0  0  0  0  0  0  0
   -9.0990  208.8850  112.5560 C   0  0  0  0  0  0  0  0  0  0  0  0
   -9.2420  209.2080  114.0130 C   0  0  0  0  0  0  0  0  0  0  0  0
   -8.0670  209.5940  114.7840 C   0  0  0  0  0  0  0  0  0  0  0  0
   -6.7650  209.7680  114.0980 C   0  0  0  0  0  0  0  0  0  0  0  0
   -6.6070  209.4480  112.6660 C   0  0  0  0  0  0  0  0  0  0  0  0
   -7.7830  209.0220  111.8860 C   0  0  0  0  0  0  0  0  0  0  0  0
   -5.4220  210.3800  115.0540 S   0  0  0  0  0  0  0  0  0  0  0  0
   -4.2100  210.2890  114.2980 O   0  0  0  0  0  0  0  0  0  0  0  0
   -5.8540  211.6490  115.5540 O   0  0  0  0  0  0  0  0  0  0  0  0
   -5.2170  209.3650  116.3500 N   0  0  0  0  0  0  0  0  0  0  0  0
   -3.5620  206.0480  115.3440 C   0  0  0  0  0  0  0  0  0  0  0  0
   -3.8620  205.2520  116.5560 C   0  0  0  0  0  0  0  0  0  0  0  0
   -4.7090  205.8750  117.5970 C   0  0  0  0  0  0  0  0  0  0  0  0
   -5.1930  207.2180  117.4430 N   0  0  0  0  0  0  0  0  0  0  0  0
   -4.8230  208.0270  116.3130 C   0  0  0  0  0  0  0  0  0  0  0  0
   -4.0220  207.4320  115.1920 C   0  0  0  0  0  0  0  0  0  0  0  0
  -11.4537  208.0330  108.2718 H   0  0  0  0  0  0  0  0  0  0  0  0
  -11.3189  207.8191  109.2779 H   0  0  0  0  0  0  0  0  0  0  0  0
  -13.2301  206.3806  108.6493 H   0  0  0  0  0  0  0  0  0  0  0  0
  -15.0183  206.3642  109.7050 H   0  0  0  0  0  0  0  0  0  0  0  0
  -15.7181  205.5736  109.4688 H   0  0  0  0  0  0  0  0  0  0  0  0
  -16.1085  207.2817  109.9179 H   0  0  0  0  0  0  0  0  0  0  0  0
  -16.7651  204.9770  111.2446 H   0  0  0  0  0  0  0  0  0  0  0  0
  -17.1305  206.7321  111.4627 H   0  0  0  0  0  0  0  0  0  0  0  0
  -16.6452  205.8915  112.1342 H   0  0  0  0  0  0  0  0  0  0  0  0
  -16.6024  204.7636  113.9465 H   0  0  0  0  0  0  0  0  0  0  0  0
  -15.1542  204.8858  115.3986 H   0  0  0  0  0  0  0  0  0  0  0  0
  -15.6996  206.5567  115.6179 H   0  0  0  0  0  0  0  0  0  0  0  0
  -13.3247  206.8636  112.5865 H   0  0  0  0  0  0  0  0  0  0  0  0
  -13.4594  206.6190  112.6350 H   0  0  0  0  0  0  0  0  0  0  0  0
  -11.5234  207.1748  112.1495 H   0  0  0  0  0  0  0  0  0  0  0  0
  -10.7194  206.5353  112.4011 H   0  0  0  0  0  0  0  0  0  0  0  0
  -11.6510  207.9641  112.9946 H   0  0  0  0  0  0  0  0  0  0  0  0
  -10.5684  209.2582  111.3964 H   0  0  0  0  0  0  0  0  0  0  0  0
   -9.7290  209.2713  113.3298 H   0  0  0  0  0  0  0  0  0  0  0  0
   -9.7101  208.3783  114.5002 H   0  0  0  0  0  0  0  0  0  0  0  0
   -9.8183  210.1094  113.9975 H   0  0  0  0  0  0  0  0  0  0  0  0
   -7.9392  208.8925  115.5818 H   0  0  0  0  0  0  0  0  0  0  0  0
   -8.3053  210.5913  115.0899 H   0  0  0  0  0  0  0  0  0  0  0  0
   -6.5543  209.3951  113.1175 H   0  0  0  0  0  0  0  0  0  0  0  0
   -5.8447  208.7038  112.5659 H   0  0  0  0  0  0  0  0  0  0  0  0
   -6.3688  210.3982  112.2357 H   0  0  0  0  0  0  0  0  0  0  0  0
   -7.8943  209.6829  111.0519 H   0  0  0  0  0  0  0  0  0  0  0  0
   -7.5425  208.0099  111.6357 H   0  0  0  0  0  0  0  0  0  0  0  0
   -4.2695  210.8655  113.5202 H   0  0  0  0  0  0  0  0  0  0  0  0
   -5.9814  212.2624  114.8135 H   0  0  0  0  0  0  0  0  0  0  0  0
   -6.0688  209.4134  116.9090 H   0  0  0  0  0  0  0  0  0  0  0  0
   -3.8923  205.4924  114.4913 H   0  0  0  0  0  0  0  0  0  0  0  0
   -2.5070  206.1924  115.4489 H   0  0  0  0  0  0  0  0  0  0  0  0
   -2.9402  204.9409  117.0016 H   0  0  0  0  0  0  0  0  0  0  0  0
   -4.4581  204.4421  116.1905 H   0  0  0  0  0  0  0  0  0  0  0  0
   -4.1945  205.8086  118.5328 H   0  0  0  0  0  0  0  0  0  0  0  0
   -5.6112  205.3054  117.5166 H   0  0  0  0  0  0  0  0  0  0  0  0
   -4.9680  207.7363  118.2922 H   0  0  0  0  0  0  0  0  0  0  0  0
   -4.7263  208.0283  115.2474 H   0  0  0  0  0  0  0  0  0  0  0  0
   -4.5847  207.5114  114.2854 H   0  0  0  0  0  0  0  0  0  0  0  0
   -3.1185  208.0052  115.1880 H   0  0  0  0  0  0  0  0  0  0  0  0
  1  2  1  0  0  0  0
  1 32  1  0  0  0  0
  2  3  1  0  0  0  0
  2 13  1  0  0  0  0
  2 33  1  0  0  0  0
  3  4  1  0  0  0  0
  3 34  1  0  0  0  0
  4  5  1  0  0  0  0
  4 12  1  0  0  0  0
  4 35  1  0  0  0  0
  5  6  1  0  0  0  0
  5 36  1  0  0  0  0
  5 37  1  0  0  0  0
  6  7  1  0  0  0  0
  6 38  1  0  0  0  0
  6 39  1  0  0  0  0
  7  8  1  0  0  0  0
  7 11  1  0  0  0  0
  7 40  1  0  0  0  0
  8  9  1  0  0  0  0
  8 41  1  0  0  0  0
  9 10  1  0  0  0  0
  9 42  1  0  0  0  0
  9 43  1  0  0  0  0
 10 11  1  0  0  0  0
 11 12  1  0  0  0  0
 11 44  1  0  0  0  0
 12 13  1  0  0  0  0
 12 45  1  0  0  0  0
 13 14  1  0  0  0  0
 13 46  1  0  0  0  0
 14 15  1  0  0  0  0
 14 47  1  0  0  0  0
 14 48  1  0  0  0  0
 15 16  1  0  0  0  0
 15 49  1  0  0  0  0
 16 17  1  0  0  0  0
 16 21  1  0  0  0  0
 16 50  1  0  0  0  0
 17 18  1  0  0  0  0
 17 51  1  0  0  0  0
 17 52  1  0  0  0  0
 18 19  1  0  0  0  0
 18 53  1  0  0  0  0
 18 54  1  0  0  0  0
 19 20  1  0  0  0  0
 19 22  1  0  0  0  0
 19 55  1  0  0  0  0
 20 21  1  0  0  0  0
 20 56  1  0  0  0  0
 20 57  1  0  0  0  0
 21 58  1  0  0  0  0
 21 59  1  0  0  0  0
 22 23  1  0  0  0  0
 22 24  1  0  0  0  0
 22 25  1  0  0  0  0
 23 60  1  0  0  0  0
 24 61  1  0  0  0  0
 25 30  1  0  0  0  0
 25 62  1  0  0  0  0
 26 27  1  0  0  0  0
 26 31  1  0  0  0  0
 26 63  1  0  0  0  0
 26 64  1  0  0  0  0
 27 28  1  0  0  0  0
 27 65  1  0  0  0  0
 27 66  1  0  0  0  0
 28 29  1  0  0  0  0
 28 67  1  0  0  0  0
 28 68  1  0  0  0  0
 29 30  1  0  0  0  0
 29 69  1  0  0  0  0
 30 31  1  0  0  0  0
 30 70  1  0  0  0  0
 31 71  1  0  0  0  0
 31 72  1  0  0  0  0
M  END
$$$$
