http://www.rcsb.org/pdb/files/1fvv.pdb.gz
__Jmol-13_12011413053D 1   1.00000     0.00000     0
Jmol version 13.0.9  2012-11-23 13:17 EXTRACT: ({8960:8990})
 31 35  0  0  0  0              1 V2000
 -11.22200 207.97600 109.21200 O   0  0  0  0  0  0
 -12.17100 207.50200 109.84200 C   0  0  0  0  0  0
 -13.36000 207.13800 109.32000 N   0  0  0  0  0  0
 -14.21700 206.75000 110.30000 C   0  0  0  0  0  0
 -15.63800 206.36000 110.18999 C   0  0  0  0  0  0
 -16.38600 205.96700 111.39000 C   0  0  0  0  0  0
 -15.74100 206.02701 112.68999 C   0  0  0  0  0  0
 -16.23200 205.71399 113.95000 N   0  0  0  0  0  0
 -15.30400 205.83701 114.93200 C   0  0  0  0  0  0
 -13.81400 206.45300 114.42800 S   0  0  0  0  0  0
 -14.29200 206.46799 112.81600 C   0  0  0  0  0  0
 -13.55700 206.80600 111.58600 C   0  0  0  0  0  0
 -12.20300 207.25500 111.32700 C   0  0  0  0  0  0
 -11.17600 207.47501 112.17000 C   0  0  0  0  0  0
 -10.10700 208.43900 111.79199 N   0  0  0  0  0  0
  -9.09900 208.88501 112.55600 C   0  0  0  0  0  0
  -9.24200 209.20799 114.01300 C   0  0  0  0  0  0
  -8.06700 209.59399 114.78400 C   0  0  0  0  0  0
  -6.76500 209.76799 114.09800 C   0  0  0  0  0  0
  -6.60700 209.44798 112.66599 C   0  0  0  0  0  0
  -7.78300 209.02200 111.88600 C   0  0  0  0  0  0
  -5.42200 210.38000 115.05400 S   0  0  0  0  0  0
  -4.21000 210.28900 114.29800 O   0  0  0  0  0  0
  -5.85400 211.64900 115.55400 O   0  0  0  0  0  0
  -5.21700 209.36501 116.35001 N   0  0  0  0  0  0
  -3.56200 206.04799 115.34400 C   0  0  0  0  0  0
  -3.86200 205.25200 116.55600 C   0  0  0  0  0  0
  -4.70900 205.87502 117.59700 C   0  0  0  0  0  0
  -5.19300 207.21799 117.44300 N   0  0  0  0  0  0
  -4.82300 208.02701 116.31300 C   0  0  0  0  0  0
  -4.02200 207.43199 115.19199 C   0  0  0  0  0  0
  1  2  1  0  0  0
  2  3  1  0  0  0
  2 13  1  0  0  0
  3  4  1  0  0  0
  4  5  1  0  0  0
  4 12  1  0  0  0
  5  6  1  0  0  0
  6  7  1  0  0  0
  7  8  1  0  0  0
  7 11  1  0  0  0
  8  9  1  0  0  0
  9 10  1  0  0  0
 10 11  1  0  0  0
 11 12  1  0  0  0
 12 13  1  0  0  0
 13 14  1  0  0  0
 14 15  1  0  0  0
 15 16  1  0  0  0
 16 17  1  0  0  0
 16 21  1  0  0  0
 17 18  1  0  0  0
 18 19  1  0  0  0
 19 20  1  0  0  0
 19 22  1  0  0  0
 20 21  1  0  0  0
 22 23  1  0  0  0
 22 24  1  0  0  0
 22 25  1  0  0  0
 25 30  1  0  0  0
 26 27  1  0  0  0
 26 31  1  0  0  0
 27 28  1  0  0  0
 28 29  1  0  0  0
 29 30  1  0  0  0
 30 31  1  0  0  0
M  END
